Circuit: * C:\Users\serge\OneDrive\Documents\UMSAE Formula Electric\2020\LTspice Simulations\LV Power\VoltProt_UV_timer_2019.asc

WARNING: Less than two connections to node N001.  This node is used by V2.
WARNING: Less than two connections to node NC_02.  This node is used by S:U3:1.
Direct Newton iteration failed to find .op point.  (Use ".option noopiter" to skip.)
Starting Gmin stepping
Gmin = 10
Gmin = 1.07374
Gmin = 0.115292
Gmin = 0.0123794
Gmin = 0.00132923
Gmin = 0.000142725
Gmin = 1.5325e-005
Gmin = 1.6455e-006
Gmin = 1.76685e-007
Gmin = 1.89714e-008
Gmin = 2.03704e-009
Gmin = 2.18725e-010
Gmin = 2.34854e-011
Gmin = 2.52173e-012
Gmin = 2.70769e-013
Gmin = 0
Gmin stepping succeeded in finding the operating point.

Heightened Def Con from 14.5466 to 14.5466

Date: Sun Jul 21 20:19:31 2019
Total elapsed time: 0.846 seconds.

tnom = 27
temp = 27
method = modified trap
totiter = 19233
traniter = 18809
tranpoints = 6010
accept = 4409
rejected = 1602
matrix size = 57
fillins = 18
solver = Normal
Thread vector: 52.8/31.9[2] 14.9/8.7[2] 10.6/8.8[2] 0.5/4.3[1]  2592/500
Matrix Compiler1: 3.31 KB object code size  4.3/2.3/[0.8]
Matrix Compiler2: 4.32 KB object code size  1.8/2.5/[1.0]

