Circuit: * C:\Users\serge\OneDrive\Documents\UMSAE Formula Electric\2020\LTspice Simulations\LV Power\VoltProt_UV_timer_RC_2020.asc

WARNING: Less than two connections to node N001.  This node is used by V1.
WARNING: Less than two connections to node N002.  This node is used by V3.
WARNING: Less than two connections to node NC_01.  This node is used by V4.
Direct Newton iteration failed to find .op point.  (Use ".option noopiter" to skip.)
Starting Gmin stepping
Gmin = 10
Gmin = 1.07374
Gmin = 0.115292
Gmin = 0.0123794
Gmin = 0.00132923
Gmin = 0.000142725
Gmin = 1.5325e-005
Gmin = 1.6455e-006
Gmin = 1.76685e-007
Gmin = 1.89714e-008
Gmin = 2.03704e-009
Gmin = 2.18725e-010
Gmin = 2.34854e-011
Gmin = 2.52173e-012
Gmin = 2.70769e-013
Gmin = 0
Gmin stepping succeeded in finding the operating point.


Date: Mon Nov 09 19:26:33 2020
Total elapsed time: 1.040 seconds.

tnom = 27
temp = 27
method = modified trap
totiter = 28743
traniter = 28327
tranpoints = 12120
accept = 8097
rejected = 4023
matrix size = 45
fillins = 14
solver = Normal
Thread vector: 12.1/9.3[2] 3.0/2.5[2] 0.9/1.6[1] 0.1/1.0[1]  2592/500
Matrix Compiler1: 2.41 KB object code size  0.5/0.3/[0.3]
Matrix Compiler2: 3.35 KB object code size  0.4/0.5/[0.3]

