Circuit: * C:\Users\serge\OneDrive\Documents\UMSAE Formula Electric\2019\simulations\VoltProt_UV_timer_V2_Real.asc

WARNING: Less than two connections to node NC_02.  This node is used by S:U2:1.
Direct Newton iteration failed to find .op point.  (Use ".option noopiter" to skip.)
Starting Gmin stepping
Gmin = 10
Gmin = 1.07374
Gmin = 0.115292
Gmin = 0.0123794
Gmin = 0.00132923
Gmin = 0.000142725
Gmin = 1.5325e-005
Gmin = 1.6455e-006
Gmin = 1.76685e-007
Gmin = 1.89714e-008
Gmin = 2.03704e-009
Gmin = 2.18725e-010
Gmin = 2.34854e-011
Gmin = 2.52173e-012
Gmin = 2.70769e-013
Gmin = 0
Gmin stepping succeeded in finding the operating point.


Date: Tue Jun 25 13:33:01 2019
Total elapsed time: 2.214 seconds.

tnom = 27
temp = 27
method = modified trap
totiter = 17517
traniter = 17093
tranpoints = 4745
accept = 3838
rejected = 907
matrix size = 55
fillins = 18
solver = Normal
Thread vector: 76.3/62.3[2] 5.5/4.6[2] 2.0/3.2[1] 1.1/4.9[1]  2592/500
Matrix Compiler1: 3.28 KB object code size  2.3/1.3/[0.7]
Matrix Compiler2: 4.24 KB object code size  5.6/5.5/[1.8]

