Circuit: * C:\Users\serge\OneDrive\Documents\UMSAE Formula Electric\simulations\VoltProt_UV_timer_V4.asc

WARNING: Less than two connections to node NC_02.  This node is used by S:U2:1.
Direct Newton iteration failed to find .op point.  (Use ".option noopiter" to skip.)
Starting Gmin stepping
Gmin = 10
Gmin = 1.07374
vernier = 0.5
Gmin = 0.20016
vernier = 0.25
vernier = 0.125
vernier = 0.0625
vernier = 0.03125
vernier = 0.015625
Gmin = 0.20016
vernier = 0.0078125
vernier = 0.00390625
vernier = 0.00195313
vernier = 0.000976563
Gmin = 0.200013
vernier = 0.000488281
Gmin = 0
Gmin stepping failed

Starting source stepping with srcstepmethod=0
Source Step = 3.0303%
Source Step = 12.1212%
Source Step = 15.9121%
Source Step = 15.9416%
Source Step = 15.9712%
Source Step = 16.0008%
Source Step = 16.0304%
Source Step = 16.06%
vernier = 0.00146484
Source Step = 16.1014%
Source Step = 16.1458%
Source Step = 16.1902%
Source Step = 16.2346%
Source Step = 16.279%
vernier = 0.00219727
Source Step = 16.3389%
Source Step = 16.4055%
Source Step = 16.4721%
Source Step = 16.5387%
Source Step = 16.6053%
vernier = 0.0032959
Source Step = 16.6918%
Source Step = 16.7917%
Source Step = 16.8916%
Source Step = 16.9914%
Source Step = 17.0913%
vernier = 0.00494385
Source Step = 17.2162%
Source Step = 17.366%
Source Step = 17.5158%
Source Step = 17.6656%
Source Step = 17.8154%
vernier = 0.00741577
Source Step = 17.9952%
Source Step = 18.2199%
Source Step = 18.4446%
Source Step = 18.6694%
Source Step = 18.8941%
vernier = 0.0111237
Source Step = 19.1525%
Source Step = 19.4896%
Source Step = 19.8267%
Source Step = 20.1637%
Source Step = 20.5008%
vernier = 0.0166855
Source Step = 20.8716%
Source Step = 21.3772%
Source Step = 21.8829%
Source Step = 22.3885%
Source Step = 22.8941%
vernier = 0.0250282
Source Step = 23.425%
Source Step = 24.1834%
Source Step = 24.9419%
Source Step = 25.7003%
Source Step = 26.4587%
Source Step = 27.2172%
vernier = 0.0375423
Source Step = 28.3548%
Source Step = 29.4925%
Source Step = 30.6301%
Source Step = 31.7677%
Source Step = 32.9054%
vernier = 0.0563135
Source Step = 34.555%
Source Step = 36.2615%
Source Step = 37.9679%
Source Step = 39.6744%
Source Step = 41.3809%
vernier = 0.0844703
Source Step = 43.7699%
Source Step = 43.7979%
Source Step = 43.8379%
Source Step = 43.8779%
Source Step = 43.9179%
Source Step = 43.9579%
vernier = 0.00197977
Source Step = 44.0079%
Source Step = 44.0679%
Source Step = 44.1279%
Source Step = 44.1879%
Source Step = 44.2479%
vernier = 0.00296966
Source Step = 44.3199%
Source Step = 44.4098%
Source Step = 44.4998%
Source Step = 44.5898%
Source Step = 44.6798%
vernier = 0.00445449
Source Step = 44.7833%
Source Step = 44.9183%
Source Step = 45.0533%
Source Step = 45.1883%
Source Step = 45.3232%
vernier = 0.00668173
Source Step = 45.4717%
Source Step = 45.6742%
Source Step = 45.8767%
Source Step = 46.0792%
Source Step = 46.2816%
vernier = 0.0100226
Source Step = 46.4942%
Source Step = 46.7979%
Source Step = 47.1017%
Source Step = 47.4054%
Source Step = 47.7091%
Source Step = 48.0128%
vernier = 0.0150339
Source Step = 48.4684%
Source Step = 48.924%
Source Step = 49.3795%
Source Step = 49.8351%
Source Step = 50.2109%
Source Step = 50.2537%
Source Step = 50.2821%
Source Step = 50.3106%
Source Step = 50.3391%
Source Step = 50.3675%
vernier = 0.00140943
Source Step = 50.4046%
Source Step = 50.4473%
Source Step = 50.49%
Source Step = 50.5327%
Source Step = 50.5754%
vernier = 0.00211414
Source Step = 50.6288%
Source Step = 50.6929%
Source Step = 50.7569%
Source Step = 50.821%
Source Step = 50.885%
vernier = 0.00317121
Source Step = 50.9619%
Source Step = 51.058%
Source Step = 51.1541%
Source Step = 51.2502%
Source Step = 51.3463%
vernier = 0.00475682
Source Step = 51.4568%
Source Step = 51.601%
Source Step = 51.7451%
Source Step = 51.8893%
Source Step = 52.0334%
vernier = 0.00713523
Source Step = 52.192%
Source Step = 52.4082%
Source Step = 52.6244%
Source Step = 52.8406%
Source Step = 53.0568%
vernier = 0.0107028
Source Step = 53.2839%
Source Step = 53.6082%
Source Step = 53.9325%
Source Step = 54.2569%
Source Step = 54.5812%
Source Step = 54.9055%
vernier = 0.0160543
Source Step = 55.392%
Source Step = 55.8785%
Source Step = 56.365%
Source Step = 56.8515%
Source Step = 57.338%
vernier = 0.0240814
Source Step = 58.0434%
Source Step = 58.7731%
Source Step = 59.5029%
Source Step = 60.2326%
Source Step = 60.9624%
vernier = 0.0361221
Source Step = 61.984%
Source Step = 63.0786%
Source Step = 64.1732%
Source Step = 65.2678%
Source Step = 66.3624%
vernier = 0.0541831
Source Step = 67.8401%
Source Step = 69.4821%
Source Step = 71.124%
Source Step = 72.7659%
Source Step = 74.4078%
vernier = 0.0812747
Source Step = 76.5423%
Source Step = 79.0052%
Source Step = 81.468%
Source Step = 83.9309%
Source Step = 86.3938%
vernier = 0.121912
Source Step = 89.4724%
Source Step = 91.6947%
Source Step = 91.7524%
Source Step = 91.8102%
Source Step = 91.8679%
Source Step = 91.9256%
Source Step = 91.9833%
Source Step = 92.041%
Source Step = 92.0988%
vernier = 0.00285731
Source Step = 92.1796%
Source Step = 92.2662%
Source Step = 92.3528%
Source Step = 92.4393%
Source Step = 92.5259%
vernier = 0.00428597
Source Step = 92.6428%
Source Step = 92.7727%
Source Step = 92.9026%
Source Step = 93.0324%
Source Step = 93.1623%
vernier = 0.00642896
Source Step = 93.3312%
Source Step = 93.526%
Source Step = 93.7208%
Source Step = 93.9156%
Source Step = 94.1104%
vernier = 0.00964343
Source Step = 94.354%
Source Step = 94.6462%
Source Step = 94.9384%
Source Step = 95.2306%
Source Step = 95.5229%
vernier = 0.0144651
Source Step = 95.8735%
Source Step = 96.3119%
Source Step = 96.7502%
Source Step = 97.1885%
Source Step = 97.6269%
vernier = 0.0216977
Source Step = 98.131%
Source Step = 98.7885%
Source Step = 99.446%
Source stepping succeeded in finding the operating point.


Date: Fri Mar 29 16:42:40 2019
Total elapsed time: 1.633 seconds.

tnom = 27
temp = 27
method = modified trap
totiter = 17563
traniter = 5072
tranpoints = 1801
accept = 1613
rejected = 188
matrix size = 56
fillins = 34
solver = Normal
Thread vector: 21.8/19.6[2] 7.1/5.9[2] 4.3/2.4[2] 0.3/2.2[1]  2592/500
Matrix Compiler1: 3.40 KB object code size  1.9/3.2/[0.6]
Matrix Compiler2: 4.66 KB object code size  1.9/2.3/[0.7]

