Circuit: * C:\Users\serge\OneDrive\Documents\UMSAE Formula Electric\simulations\VoltProt_UV_timer_V2.asc

WARNING: Less than two connections to node NC_02.  This node is used by S:U2:1.
Direct Newton iteration failed to find .op point.  (Use ".option noopiter" to skip.)
Starting Gmin stepping
Gmin = 10
Gmin = 1.07374
Gmin = 0.115292
Gmin = 0.0123794
Gmin = 0.00132923
Gmin = 0.000142725
Gmin = 1.5325e-005
Gmin = 1.6455e-006
Gmin = 1.76685e-007
Gmin = 1.89714e-008
Gmin = 2.03704e-009
Gmin = 2.18725e-010
Gmin = 2.34854e-011
Gmin = 2.52173e-012
Gmin = 2.70769e-013
Gmin = 0
Gmin stepping succeeded in finding the operating point.


Date: Fri Mar 29 17:37:30 2019
Total elapsed time: 0.601 seconds.

tnom = 27
temp = 27
method = modified trap
totiter = 6900
traniter = 6476
tranpoints = 2111
accept = 1851
rejected = 260
matrix size = 54
fillins = 14
solver = Normal
Thread vector: 37.8/24.4[2] 6.7/9.7[1] 4.8/5.4[1] 0.5/3.1[1]  2592/500
Matrix Compiler1: 3.00 KB object code size  2.3/1.3/[0.8]
Matrix Compiler2: 4.08 KB object code size  1.9/2.1/[1.4]

