Circuit: * C:\Users\serge\OneDrive\Documents\UMSAE Formula Electric\simulations\VoltProt_Sim_UV_Timer.asc

V1: Removing PWL point (6,12)
WARNING: Node NC_03 is floating.
WARNING: Node N005 is floating.

WARNING: Less than two connections to node NC_02.  This node is used by S:U2:1.
WARNING: Less than two connections to node N009.  This node is used by D1.
WARNING: Less than two connections to node N005.  This node is used by D1.
Direct Newton iteration failed to find .op point.  (Use ".option noopiter" to skip.)
Starting Gmin stepping
Gmin = 10
Gmin = 1.07374
Gmin = 0.115292
Gmin = 0.0123794
Gmin = 0.00132923
Gmin = 0.000142725
Gmin = 1.5325e-005
Gmin = 1.6455e-006
Gmin = 1.76685e-007
Gmin = 1.89714e-008
Gmin = 2.03704e-009
Gmin = 2.18725e-010
Gmin = 2.34854e-011
Gmin = 2.52173e-012
Gmin = 2.70769e-013
Gmin = 0
Gmin stepping succeeded in finding the operating point.


Date: Fri Mar 29 16:43:32 2019
Total elapsed time: 1.528 seconds.

tnom = 27
temp = 27
method = modified trap
totiter = 38079
traniter = 37655
tranpoints = 10035
accept = 7847
rejected = 2188
matrix size = 59
fillins = 14
solver = Normal
Thread vector: 27.3/20.5[2] 5.4/3.6[2] 3.1/2.7[2] 0.4/2.3[1]  2592/500
Matrix Compiler1: 3.32 KB object code size  1.4/0.8/[0.4]
Matrix Compiler2: 4.50 KB object code size  1.5/1.6/[1.2]

