Circuit: * C:\Users\serge\OneDrive\Documents\UMSAE Formula Electric\simulations\VoltProt_UV_timer_V2_Jolene.asc

WARNING: Less than two connections to node NC_02.  This node is used by S:U2:1.
Direct Newton iteration failed to find .op point.  (Use ".option noopiter" to skip.)
Starting Gmin stepping
Gmin = 10
Gmin = 1.07374
Gmin = 0.115292
Gmin = 0.0123794
Gmin = 0.00132923
Gmin = 0.000142725
Gmin = 1.5325e-005
Gmin = 1.6455e-006
Gmin = 1.76685e-007
Gmin = 1.89714e-008
Gmin = 2.03704e-009
Gmin = 2.18725e-010
Gmin = 2.34854e-011
Gmin = 2.52173e-012
Gmin = 2.70769e-013
Gmin = 0
Gmin stepping succeeded in finding the operating point.


Date: Tue Jan 22 16:30:36 2019
Total elapsed time: 0.396 seconds.

tnom = 27
temp = 27
method = modified trap
totiter = 6805
traniter = 6381
tranpoints = 2110
accept = 1860
rejected = 250
matrix size = 54
fillins = 14
solver = Normal
Thread vector: 13.8/6.5[2] 2.1/2.1[1] 0.9/1.3[1] 0.1/0.8[1]  2592/500
Matrix Compiler1: 3.00 KB object code size  0.7/0.3/[0.2]
Matrix Compiler2: 4.08 KB object code size  0.5/0.7/[0.3]

